Version 4.1
SHEET 1 880 680
WIRE 64 -16 -64 -16
WIRE 400 -16 208 -16
WIRE 64 32 64 -16
WIRE 208 32 208 -16
WIRE -64 112 -64 -16
WIRE 400 112 400 -16
WIRE 64 160 64 112
WIRE 144 160 64 160
WIRE -64 288 -64 192
WIRE 208 288 208 208
WIRE 208 288 -64 288
WIRE 400 288 400 192
WIRE 400 288 208 288
WIRE 208 336 208 288
FLAG 208 336 0
SYMBOL npn 144 112 R0
SYMATTR InstName Q1
SYMATTR Value 2SC5658
SYMBOL res 192 16 R0
SYMATTR InstName RC
SYMATTR Value 1k
SYMBOL res 48 16 R0
SYMATTR InstName RB
SYMATTR Value 733.33k
SYMBOL voltage -64 96 R0
WINDOW 123 0 0 Left 0
WINDOW 39 0 0 Left 0
SYMATTR InstName VBB
SYMATTR Value 4
SYMBOL voltage 400 96 R0
WINDOW 123 0 0 Left 0
WINDOW 39 0 0 Left 0
SYMATTR InstName VCC
SYMATTR Value 10
TEXT -96 360 Left 2 !.op
TEXT -56 424 Left 2 !.step temp 0 100 1
